Grids_and_profiles/grids/case8387pegase.m
function mpc = case8387pegase
%CASE8387PEGASE 8387-bus PEGASE case, by Florin Capitanescu
%   Please read carefully until the end before using these data sets. These
%   data stem from the Pan European Grid Advanced Simulation and State
%   Estimation (PEGASE) project, funded by the European Union
%   (http://www.fp7-pegase.com/). These data are derived from the original
%   data [A] provided to Florin Capitanescu in 2013 under request by the
%   data owners in PEGASE project. The derivation consists in: (i) removing
%   data related to a transmission system operator, which were replaced by
%   equivalent loads at the end of the three interconnection lines with the
%   rest of the system, (ii) some asymmetrical PI branch models were
%   approximated as symmetrical, averaging parameters values, (iii)
%   modelling differences concerning the transformer transversal
%   susceptance, (iv) data anonymization, (v) data conversion from Eurostag
%   (.ech) fromat to my OPF data format and then to MATPOWER (.m) format,
%   and (vi) definition of various AC OPF problems (see [B] below) readily
%   to obtain in MATPOWER format.
%
%   This power system model contains 8,387 buses, 1,865 generators, 4,669
%   loads, 12,474 lines, 2,087 transformers (out of which 589 OLTC and 84
%   phases shifters) and 178 shunt capacitors/reactors. Also, 1,299 lines
%   and 529 transformers (out of which 17 phase shifters) have more than one
%   circuit in parallel. The system models 8 voltage levels: 750, 400, 380,
%   330, 220, 150, 120, and 110 kV. These data represent reasonably well the
%   size and complexity of the European transmission system. However, these
%   data are fictitious and include modifications made on purpose to real
%   world data. They can thus be used to test methods and algorithms, but
%   any claim should not be made regarding the operation or planning of the
%   European power system.
%
%   These specific data sets were publicly released for the main purpose of
%   enabling testing methods and algorithms on truly numerically challenging
%   and tough optimization problems (see details in [B], where two solvers
%   in MATPOWER version 4.1 failed to converge on two instances and my own
%   OPF failed to converge on another instance) and more comprehensive in
%   terms of grid models and versatile AC OPF formulations. For example, [B]
%   presented results for 16 various instances of AC OPF problems with
%   different objective functions, sets of decision variables (e.g. among:
%   generators active/reactive powers, ratio of LTC transformers, reactance
%   of shunt capacitors/reactors, and angle of phase shifter transformers)
%   and constraints. If you wish to include control variables like
%   transformer ratio, phase shifter angle and shunt reactance, please
%   contact me to share with you their limits and discrete steps. In my AC
%   OPF instances all thermal limits were expressed only in terms of
%   current.
%
%   When publishing results based on these data, please cite:
%
%   [A] F. Villella, S. Leclerc, I. Erlich, S. Rapoport, "PEGASE
%       pan-European test-beds for testing of algorithms on very large scale
%       power systems". IEEE PES Innovative Smart Grid Technologies Europe
%       (ISGT Europe), Berlin (Germany), 2012.
%       doi: 10.1109/ISGTEurope.2012.6465783
%
%   [B] F. Capitanescu, L. Wehenkel, "Experiments with the interior-point
%       method for solving large scale optimal power flow problems",
%       Electric Power Systems Research, vol. 95, pp. 276-283, 2013.
%       doi: 10.1016/j.epsr.2012.10.001
%
%   Besides this test case, all AC OPF instances presented in [B] can be
%   easily obtained using one or some combinations of following features:
%
%   1)  The angle of all 84 phase shifters is set to zero.
%   2)  Identical unity costs (c=1.0) are used for all generators to
%       minimize the sum of generators active powers (an unconventional
%       loss minimization via also active power redispatch) as OPF
%       objective function.
%   3)  The quadratic OPF objective function minimizes the sum of squares
%       of generator’ active power deviation with respect to the initial
%       value Pgi^0 (provided in the data set), i.e. (Pgi-Pgi^0)^2. Thus,
%       the coefficients of the fictitious cost function are in p.u.
%       (100MVA base): (0.01*Pgi^0)^2, -2*0.01*Pgi^0, and 0.0001.
%   4)  The thermal limit of line between nodes 746 and 5968 and can be
%       decreased on purpose from 2061.62 MVA to 1000 MVA to create congestion
%       (around 20% current overload) and a tough OPF problem, see [B].
%
%   If you face convergence issues with your own NLP solver, some
%   simplifications are suggested:
%    -  Some generators (around 40) with small active power range (<=20MW)
%       are not taken as control variable, their active power remain at the
%       initial value;
%    -  Some generators (around 40) with small reactive power range
%       (<=10MVAr) are not taken as control variable, their reactive power
%       remain at the initial value;
%    -  The reactance of 98 short lines could be raised to the minimum
%       threshold value of 0.0002 pu;
%    -  Increase the convergence tolerance of the NLP solver to 10^-5 on
%       primal and relative dual feasibility.
%
%   Contact: Florin Capitanescu fcapitanescu@yahoo.com
%
%   February 18th, 2021

%   MATPOWER
%   Copyright (c) 2021 by Florin Capitanescu
%   Licensed under the Creative Commons Attribution 4.0 International license,
%   https://creativecommons.org/licenses/by/4.0/

fixed = 0;  %% change to 1 to fix the generation of 615 smaller units that
            %% have no lower/upper bounds on active and reactive generation
            %% in the original data

%% MATPOWER Case Format : Version 2
mpc.version = '2';

%%-----  Power Flow Data  -----%%
%% system MVA base
mpc.baseMVA = 100;

%% bus data
%	bus_i	type	Pd	Qd	Gs	Bs	area	Vm	Va	baseKV	zone	Vmax	Vmin
mpc.bus = [
	1	1	378.4	98.5	0	0	1	1.038963	-34.89481	220	1	1.1	0.9;
	2	1	151	48.8	0	0	1	1.026375	-20.392332	220	1	1.1	0.9;
	3	1	171.4081	23.4	0	0	1	1.040071	-6.609053	220	1	1.127885	0.9;
	4	1	45.95095	14	0	0	1	1.01637	-46.441272	220	1	1.1	0.9;
	5	2	343.4	53.1	0	20	1	1.060105	-39.700511	380	1	1.126561	0.9;
	6	1	31.03441	10.3	0	0	1	0.901905	-32.067072	110	1	1.1	0.9;
	7	1	134	24.7	0	0	1	1.075492	-22.993847	220	1	1.16095	0.9;
	8	1	0	0	0	11.29798	1	1.030663	-24.28533	150	1	1.1	0.9;
	9	1	-6.10677	2	0	0	1	1.03402	-18.796018	150	1	1.105047	0.9;
	10	2	8.509435	5	0	0	1	1.045776	-45.266112	220	1	1.1	0.9;
	11	1	13.5	14.8	0	0	1	1.098764	-14.368752	380	1	1.166895	0.9;
	12	1	59.66615	26.7	0	0	1	1.064712	-44.0377	220	1	1.113369	0.9;
	13	1	67.67503	12.1	0	0	1	1.010989	7.736285	220	1	1.1	0.9;
	14	2	0	0	0	0	1	1.040474	18.686769	380	1	1.1	0.9;
	15	1	25.32808	7.5	0	0	1	0.993806	-34.020232	110	1	1.1	0.9;
	16	1	161.2	39.3	0	0	1	1.074018	-20.85146	220	1	1.153603	0.9;
	17	1	0	0	0	0	1	1.081379	-17.543279	220	1	1.146159	0.9;
	18	1	19.62176	7.1	0	0	1	1.017163	-21.39745	110	1	1.1	0.9;
	19	1	17.21909	5.7	0	0	1	0.927816	-27.872689	110	1	1.1	0.9;
	20	2	0	0	0	0	1	1.012955	14.035448	220	1	1.1	0.9;
	21	1	167.3	54.8	0	0	1	1.079094	-3.040599	380	1	1.140082	0.9;
	22	1	0	0	0	0	1	1.074452	14.420626	380	1	1.142106	0.9;
	23	1	0	0	0	0	1	0.96616	-25.110965	150	1	1.1	0.9;
	24	1	152.9	49.4	0	0	1	1.067288	-12.812268	380	1	1.121859	0.9;
	25	1	0	0	0	0	1	1.014514	-22.601714	150	1	1.1	0.9;
	26	1	69.67725	43.2	0	0	1	0.935328	-28.779899	150	1	1.1	0.879727;
	27	2	0	0	0	0	1	1.020864	-38.450258	220	1	1.1	0.9;
	28	2	0	0	0	0	1	1.025773	-34.375097	220	1	1.1	0.9;
	29	1	13.51498	4.9	0	0	1	1.044666	-20.014722	110	1	1.106205	0.9;
	30	1	10.51165	3.5	0	0	1	1.054655	-32.269646	110	1	1.123445	0.9;
	31	1	0	0	0.122998	0	1	1.06255	-16.574001	220	1	1.115122	0.9;
	32	1	9.210212	2.6	0	0	1	0.942396	-25.378952	110	1	1.1	0.9;
	33	1	42.74739	12.8	0	0	1	1.079439	20.319468	220	1	1.157714	0.9;
	34	2	0	0	0	0	1	1.023133	-34.021096	150	1	1.1	0.9;
	35	2	24.02664	7.8	0	0	1	0.952528	-26.572018	110	1	1.1	0.9;
	36	1	20.82309	7.9	0	0	1	1.087429	-44.289567	380	1	1.138606	0.9;
	37	1	0	0	0	0	1	1.077563	-21.020443	220	1	1.161391	0.9;
	38	1	10.11121	3.7	0	0	1	1.055964	-20.284863	110	1	1.113777	0.9;
	39	1	10.0111	2.7	0	0	1	0.939617	-24.979801	110	1	1.1	0.9;
	40	1	6.306993	0	0	0	1	0.96251	-23.689017	110	1	1.1	0.9;
	41	1	2.903219	0.9	0	0	1	0.989708	-20.928223	110	1	1.1	0.9;
	42	2	0	0	0	0	1	1.051136	-33.838556	220	1	1.113044	0.9;
	43	2	151.8	48.3	0	0	1	1.026	-42.739462	220	1	1.1	0.9;
	44	1	127.6	31.8	0	0	1	1.058132	0.522482	150	1	1.119723	0.9;
	45	1	48.65394	16.1	0	0	1	1.069015	-8.755465	220	1	1.141578	0.9;
	46	1	110.5	-26.8	0	0	1	1.063422	-33.39153	220	1	1.128492	0.9;
	47	1	0	0	0	0	1	0.993101	10.688212	220	1	1.1	0.9;
	48	1	140	79.7	0	0	1	1.023887	-15.442695	220	1	1.1	0.9;
	49	1	0	0	0	0	1	1.074444	-15.666053	380	1	1.135699	0.9;
	50	1	119.2	20.7	0	0	1	1.018017	-23.197334	220	1	1.125867	0.9;
	51	2	5.105661	1.3	0	0	1	1.030763	-16.065598	110	1	1.1	0.9;
	52	1	0	0	0	0	1	1.078773	46.429599	380	1	1.1	0.9;
	53	1	0	0	0	0	1	0.95334	-23.586564	110	1	1.1	0.9;
	54	1	187.9	110.2	0	20	1	1.059872	6.237875	380	1	1.113265	0.9;
	55	1	14.91654	5.5	0	0	1	1.00326	-17.973502	110	1	1.1	0.9;
	56	1	-18.5205	6.1	0	0	1	0.94589	-27.327121	150	1	1.1	0.9;
	57	1	4.605106	1.7	0	0	1	1.038632	-15.021604	110	1	1.13511	0.9;
	58	1	0	0	0.090701	0	1	1.079305	-18.429678	380	1	1.14929	0.9;
	59	1	10.81199	5.1	0	0	1	0.919535	-28.937152	110	1	1.1	0.9;
	60	1	62.86971	20.5	0	0	1	1.059071	-0.602036	150	1	1.121873	0.9;
	61	1	126.3	42.4	0	0	1	1.084891	2.141781	150	1	1.156303	0.9;
	62	1	6.907659	-4.6	0	0	1	1.02866	-36.521106	220	1	1.1	0.9;
	63	1	15.71743	5.2	0	0	1	0.933539	-34.456554	110	1	1.1	0.9;
	64	1	0	0	0	17.1282	1	1.024338	-23.11119	150	1	1.1	0.9;
	65	1	38.74295	6.1	0	0	1	1.054835	-48.187327	220	1	1.107549	0.9;
	66	1	22.12453	10.7	0	0	1	1.079567	20.328447	220	1	1.157811	0.9;
	67	1	0	0	0	0	1	1.048413	-45.550599	220	1	1.1	0.9;
	68	1	0	0	0	0	1	0.99755	-16.514886	110	1	1.1	0.9;
	69	1	138.8	136.7	0	0	1	1.014697	14.350572	380	1	1.1	0.9;
	70	2	137.3	66.4	0	0	1	1.022545	-21.297375	220	1	1.108244	0.9;
	71	2	67.77514	19.7	0	0	1	1.048726	61.695204	150	1	1.1	0.9;
	72	1	22.02442	5.1	0	0	1	1.016103	-29.430561	110	1	1.2	0.8;
	73	1	0	0	0	0	1	1.016746	14.422022	220	1	1.1	0.9;
	74	1	1.00111	0.3	0	0	1	1.037164	-22.840921	110	1	1.132836	0.9;
	75	1	0	0	0	0	1	1.077496	-17.641439	150	1	1.1	0.9;
	76	1	21.52386	5.1	0	0	1	1.035786	-10.805746	110	1	1.1	0.9;
	77	1	71.9798	28.8	0	0	1	1.052622	-36.234527	220	1	1.135	0.9;
	78	1	0	0	0.173359	0	1	1.027193	-5.300984	380	1	1.1	0.9;
	79	2	365.2	116.5	0	0	1	1.031659	-27.564002	220	1	1.110955	0.9;
	80	1	0	0	0	0	1	1.088263	1.178574	150	1	1.157145	0.9;
	81	1	192.9	73.3	0	0	1	1.060148	4.664268	380	1	1.126192	0.9;
	82	1	17.51942	6.3	0	0	1	1.055871	-16.94169	110	1	1.135196	0.9;
	83	1	33.13674	12	0	0	1	1.010453	-20.40704	110	1	1.1	0.9;
	84	1	40.44484	25	0	0	1	1.043878	-23.359092	150	1	1.1	0.9;
	85	2	212.9	61.7	0	0	1	1.068345	-14.0534	220	1	1.124136	0.9;
	86	1	0	0	0	0	1	1.07894	2.524891	380	1	1.126808	0.9;
	87	1	90.70056	25.5	0	0	1	1.038032	-1.648397	220	1	1.114867	0.9;
	88	1	176.3	-58.9	0	0	1	1.075423	-32.825831	380	1	1.151238	0.9;
	89	1	35.93985	22.3	0	0	1	1.010047	-23.837407	150	1	1.1	0.9;
	90	1	0	0	0	0	1	1.030319	-24.295172	150	1	1.1	0.9;
	91	1	0	0	0	0	1	1.01282	-47.531793	220	1	1.1	0.9;
	92	1	65.07214	40.3	0	0	1	0.998755	-26.993988	150	1	1.1	0.9;
	93	1	51.35694	-8.8	0	0	1	0.986974	-51.973397	220	1	1.1	0.9;
	94	1	0	0	0	0	1	1.068183	-32.344945	380	1	1.128981	0.9;
	95	1	0	0	0	0	1	1.101714	-15.920408	380	1	1.183108	0.9;
	96	2	0	0	0	0	1	1.103763	42.095641	380	1	1.119079	0.9;
	97	1	3.804218	1.3	0	0	1	1.022916	-14.269525	110	1	1.1	0.9;
	98	1	0	0	0	0	1	0.960682	-25.230096	150	1	1.1	0.9;
	99	1	61.06771	36	0	0	1	1.054988	-22.53124	220	1	1.1	0.9;
	100	1	0	0	0	0	1	1.066066	-8.275109	220	1	1.12853	0.9;
	101	1	0	0	0	0	1	1.075399	-13.687413	380	1	1.14595	0.9;
	102	1	0	0	0	0	1	1.081257	-19.059926	220	1	1.184353	0.9;
	103	1	1.801998	0.7	0	0	1	1.005392	-18.555746	110	1	1.1	0.9;
	104	1	40.0444	16	0	0	1	0.984345	-19.661056	110	1	1.1	0.9;
	105	1	0	0	0	0	1	1.071027	-9.623723	380	1	1.119605	0.9;
	106	1	0	0	0	0	1	1.070813	-14.444565	150	1	1.123004	0.9;
	107	1	45.15006	14.1	0	0	1	1.006189	-19.974072	110	1	1.1	0.9;
	108	1	0	0	0	0	1	1.004673	9.721829	220	1	1.1	0.9;
	109	2	0	0	0	0	1	1.066727	-18.880729	220	1	1.113308	0.9;
	110	2	0	0	0	0	1	1.066	8.596379	220	1	1.13202	0.9;
	111	2	8.209102	4.4	0	0	1	1.0287	-16.101178	110	1	1.1	0.9;
	112	1	0	0	0	0	1	1.060106	-26.65192	220	1	1.122189	0.9;
	113	1	23.72631	12.7	0	0	1	1.056511	-15.772611	220	1	1.129086	0.9;
	114	1	121.9	7.4	0	0	1	1.049178	-10.846798	220	1	1.11918	0.9;
	115	1	0	0	0.156015	0	1	1.098262	-42.669422	380	1	1.154381	0.9;
	116	1	47.3525	16.4	0	0	1	1.035033	-35.673812	110	1	1.1	0.9;
	117	1	0	0	0	0	1	1.09848	-39.509301	380	1	1.154681	0.9;
	118	1	38.14229	12.5	0	0	1	1.057885	2.038552	150	1	1.117601	0.9;
	119	1	130.6	84.9	0	0	1	1.05183	-20.341738	220	1	1.1	0.9;
	120	1	7.908769	2.6	0	0	1	1.027787	-31.846971	110	1	1.1	0.9;
	121	2	47.15228	78	0	0	1	1.029075	61.886161	150	1	1.1	0.9;
	122	1	-75.3836	7.8	0	0	1	1.095416	-37.547369	380	1	1.158685	0.9;
	123	1	0	0	0	0	1	1.037056	14.583899	380	1	1.1	0.9;
	124	1	0	0	0	0	1	1.025318	13.046206	220	1	1.1	0.9;
	125	2	100.9	49.3	0	0	1	1.002727	-0.386041	220	1	1.105252	0.9;
	126	2	0	0	0	0	1	1.080818	-28.948979	220	1	1.133107	0.9;
	127	1	0	0	0	0	1	1.067289	3.229482	150	1	1.13802	0.9;
	128	1	0	0	0	0	1	1.057126	19.944335	380	1	1.1	0.9;
	129	1	38.34251	5.6	0	0	1	1.079405	-8.263213	220	1	1.145959	0.9;
	130	1	269.6	65.7	0	0	1	1.096744	-22.741628	120	1	1.160482	0.9;
	131	2	160	3.3	0	0	1	1.095727	-11.840449	220	1	1.144905	0.9;
	132	1	32.33585	12	0	0	1	1.042972	-7.650175	220	1	1.132096	0.9;
	133	1	100.1	45.1	0	0	1	1.050753	-38.483146	380	1	1.115611	0.9;
	134	2	12.31365	3.9	0	0	1	1.0975	2.372802	220	1	1.16377	0.9;
	135	1	0	0	0	0	1	1.058294	-27.663837	150	1	1.129496	0.9;
	136	1	0	0	0	0	1	1.003067	-35.970977	110	1	1.1	0.9;
	137	1	0	0	0	0	1	0.980759	-25.149654	110	1	1.1	0.9;
	138	1	40.34473	25	0	0	1	1.014528	-24.673955	150	1	1.1	0.9;
	139	1	9.210212	3.3	0	0	1	1.034794	-8.963928	110	1	1.107242	0.9;
	140	1	166	60.3	0	0	1	1.016031	8.161181	220	1	1.1	0.9;
	141	1	0	0	0	0	1	0.992829	-23.492907	150	1	1.1	0.9;
	142	1	0	0	0	0	1	1.038358	-21.671873	150	1	1.11491	0.9;
	143	1	0	0	0	0	1	1.098909	-17.161843	380	1	1.167046	0.9;
	144	2	152.4	35.1	0	0	1	1.073994	-10.278393	220	1	1.135549	0.9;
	145	1	0	0	0	0	1	1.063202	-1.710233	150	1	1.139094	0.9;
	146	1	26.8	-3.7	0	-25.3011	1	1.070647	-16.970903	380	1	1.118094	0.9;
	147	2	0	0	0	0	1	1.030091	13.653817	220	1	1.1	0.9;
	148	1	257.5	131.1	0	0	1	1.035723	-4.054882	220	1	1.1	0.9;
	149	1	0	0	0	0	1	1.021161	-23.284148	150	1	1.1	0.9;
	150	1	0	0	0	0	1	0.937285	38.058108	220	1	1.1	0.9;
	151	1	100.8	13.2	0	0	1	1.095539	-24.360315	220	1	1.18781	0.9;
	152	2	113.9	11.9	0	0	1	1.0096	-42.882955	220	1	1.1	0.9;
	153	2	104.4	0.7	0	0	1	1.0196	15.723856	220	1	1.1	0.9;
	154	1	370.5	-17	0	0	1	1.046899	-27.358917	220	1	1.156542	0.9;
	155	1	9.910988	3.2	0	0	1	0.990146	-37.281745	110	1	1.1	0.9;
	156	2	0	0	0	0	1	1.008891	-22.243841	150	1	1.1	0.9;
	157	1	94.9	36.2	0	0	1	0.988844	-38.857087	220	1	1.1	0.9;
	158	1	81.0899	48	0	0	1	1.004099	-23.31839	150	1	1.1	0.9;
	159	2	210.4	159.2	0	0	1	1.089842	-45.007732	380	1	1.13289	0.9;
	160	1	0	0	0	0	1	0.991367	-23.761052	110	1	1.1	0.9;
	161	1	54.96094	16.9	0	0	1	1.03332	-35.055506	110	1	1.1	0.9;
	162	1	19.32142	26	0	0	1	1.049309	40.294048	220	1	1.1	0.9;
	163	1	0	0	0	0	1	1.021022	-22.119247	150	1	1.1	0.9;
	164	1	0	0	0	0	1	1.0523	-11.912149	220	1	1.124278	0.9;
	165	1	19.92209	6.6	0	0	1	0.958234	-25.691252	110	1	1.1	0.9;
	166	1	57.16338	2	0	0	1	0.992219	-33.930735	110	1	1.1	0.9;
	167	1	69.57714	16	0	0	1	1.07593	-25.498546	220	1	1.165972	0.9;
	168	1	36.84085	13.9	0	0	1	1.088144	-18.434766	220	1	1.161548	0.9;
	169	2	4.805328	1.3	0	0	1	0.998323	-23.519367	110	1	1.1	0.9;
	170	2	9.210212	6	0	0	1	0.993364	-16.827852	110	1	1.1	0.9;
	171	1	0	0	0	0	1	1.047656	-34.236842	220	1	1.110235	0.9;
	172	2	0	0	0	0	1	1.087684	66.734724	380	1	1.1	0.9;
	173	1	119.9	3.7	0	0	1	1.038146	25.439384	220	1	1.1	0.9;
	174	2	0	0	0	0	1	1.075867	11.667964	150	1	1.10778	0.9;
	175	2	75.78402	24.6	0	0	1	1.092354	-8.438261	220	1	1.153235	0.9;
	176	1	0	0	0	0	1	1.076831	-25.438083	220	1	1.166823	0.9;
	177	2	0	0	0.288019	0	1	1.105553	45.754712	380	1	1.119591	0.9;
	178	1	39.74406	11.8	0	0	1	1.054374	-15.988696	220	1	1.12666	0.9;
	179	1	86.79623	28.4	0	0	1	1.061803	0.70194	150	1	1.12403	0.9;
	180	1	22.42486	2.1	0	0	1	1.040788	61.564881	150	1	1.1	0.9;
	181	2	0	0	0	0	1	1.057864	-46.539464	220	1	1.107704	0.9;
	182	1	110.9	32.7	0	0	1	1.007606	-0.256966	220	1	1.1	0.9;
	183	1	0	0	0.191685	0	1	1.042712	-19.254167	220	1	1.11363	0.9;
	184	1	46.15117	18.2	0	0	1	1.063849	3.781789	150	1	1.134437	0.9;
	185	1	34.03774	12.3	0	0	1	1.062433	-16.925274	110	1	1.137647	0.9;
	186	2	322.4	84.4	0	0	1	1.03615	-13.393889	220	1	1.109357	0.9;
	187	1	33.43707	10	0	0	1	1.013491	-26.974477	110	1	1.1	0.9;
	188	2	0	0	0	0	1	0.972727	-31.899847	110	1	1.1	0.9;
	189	1	0	0	0	0	1	0.979203	-20.113238	110	1	1.1	0.9;
	190	1	75.28346	19.2	0	0	1	1.034151	9.011174	110	1	1.115164	0.9;
	191	2	219.6	77.5	0	0	1	1.040354	-4.000858	220	1	1.112689	0.9;
	192	1	37.3414	10.9	0	0	1	1.006456	-30.429716	110	1	1.2	0.8;
	193	2	340	93.8	0	0	1	1.056395	14.274392	380	1	1.126171	0.9;
	194	1	0	0	0	0	1	1.001811	-23.390712	110	1	1.1	0.9;
	195	1	155.6	54.7	0	0	1	1.071309	-23.375004	220	1	1.136527	0.9;
	196	1	105.2	0.1	0	0	1	1.081865	-3.59454	220	1	1.135314	0.9;
	197	2	80.9898	21	0	0	1	1.049023	-12.546491	220	1	1.106428	0.9;
	198	2	0	0	0	0	1	1.079341	-14.723245	380	1	1.12015	0.9;
	199	2	0	0	0	0	1	1.0985	-16.80129	380	1	1.164753	0.9;
	200	2	0	0	0	0	1	1.076684	-16.997007	380	1	1.138316	0.9;
...
];

%% generator data
%	bus	Pg	Qg	Qmax	Qmin	Vg	mBase	status	Pmax	Pmin	Pc1	Pc2	Qc1min	Qc1max	Qc2min	Qc2max	ramp_agc	ramp_10	ramp_30	ramp_q	apf
mpc.gen = [
	5	1044.4	140.4	524.5259	-211.567	1.060105	100	1	1200	399.999996	0	0	0	0	0	0	0	0	0	0	0;
	10	31.25	13.32	Inf	-Inf	1.045776	100	1	Inf	-Inf	0	0	0	0	0	0	0	0	0	0	0;
	14	467.5	104	212.965	-93.4811	1.040474	100	1	500	166.666665	0	0	0	0	0	0	0	0	0	0	0;
	20	319.6	86.8	179.4347	-66.2055	1.012955	100	1	400	0	0	0	0	0	0	0	0	0	0	0	0;
	27	8	0.8	0.8	0.8	1.020864	100	1	8	8	0	0	0	0	0	0	0	0	0	0	0;
	28	5.3	0.1	0.1	0.1	1.025773	100	1	5.3	5.3	0	0	0	0	0	0	0	0	0	0	0;
	34	34.3	1.2	17.7615	-7.14375	1.023133	100	1	40	0	0	0	0	0	0	0	0	0	0	0	0;
	35	8.01	3.26	Inf	-Inf	0.952528	100	1	Inf	-Inf	0	0	0	0	0	0	0	0	0	0	0;
	42	309.2	59.2	218.5186	-75.9716	1.051136	100	1	480	0	0	0	0	0	0	0	0	0	0	0	0;
	43	7.3	1.8	1.8	1.8	1.026	100	1	7.3	7.3	0	0	0	0	0	0	0	0	0	0	0;
	51	4.87	2.96	Inf	-Inf	1.030763	100	1	Inf	-Inf	0	0	0	0	0	0	0	0	0	0	0;
	70	180.5	28.3	139.9369	-43.7779	1.022545	100	1	300	100	0	0	0	0	0	0	0	0	0	0	0;
	71	0.02	0.52	Inf	-Inf	1.048726	100	1	Inf	-Inf	0	0	0	0	0	0	0	0	0	0	0;
	79	1.95	1.11	Inf	-Inf	1.031659	100	1	Inf	-Inf	0	0	0	0	0	0	0	0	0	0	0;
	85	19.73	8.33	Inf	-Inf	1.068345	100	1	Inf	-Inf	0	0	0	0	0	0	0	0	0	0	0;
	96	570	10.2	253.8527	-113.787	1.103763	100	1	600	199.999998	0	0	0	0	0	0	0	0	0	0	0;
	109	24.9	10.2	18.84201	-6.06272	1.066727	100	1	40	0	0	0	0	0	0	0	0	0	0	0	0;
	110	861.3	112.3	440.32	-172.589	1.066	100	1	1000	333.333333	0	0	0	0	0	0	0	0	0	0	0;
	111	4.79	1.72	Inf	-Inf	1.0287	100	1	Inf	-Inf	0	0	0	0	0	0	0	0	0	0	0;
	121	5.05	3.39	Inf	-Inf	1.029075	100	1	Inf	-Inf	0	0	0	0	0	0	0	0	0	0	0;
	125	27.7	5.9	18.59004	-6.32799	1.002727	100	1	40	0	0	0	0	0	0	0	0	0	0	0	0;
	126	158.7	14.4	78.14512	-32.3995	1.080818	100	1	180	0	0	0	0	0	0	0	0	0	0	0	0;
	131	144	4.8	70.12466	-29.5005	1.095727	100	1	160	0	0	0	0	0	0	0	0	0	0	0	0;
	134	79.6	9.6	77.09313	-22.5412	1.0975	100	1	160	0	0	0	0	0	0	0	0	0	0	0	0;
	144	4.64	2.37	Inf	-Inf	1.073994	100	1	Inf	-Inf	0	0	0	0	0	0	0	0	0	0	0;
	147	292.2	63.3	127.6701	-56.5257	1.030091	100	1	300	0	0	0	0	0	0	0	0	0	0	0	0;
	152	2.2	0.94	Inf	-Inf	1.0096	100	1	Inf	-Inf	0	0	0	0	0	0	0	0	0	0	0;
	153	14.02	5.75	Inf	-Inf	1.0196	100	1	Inf	-Inf	0	0	0	0	0	0	0	0	0	0	0;
	156	0.69	5.46	Inf	-Inf	1.008891	100	1	Inf	-Inf	0	0	0	0	0	0	0	0	0	0	0;
	159	31.2	3.1	52.63864	-51.7172	1.089842	100	1	158.0808	0	0	0	0	0	0	0	0	0	0	0	0;
	169	19.85	6.42	Inf	-Inf	0.998323	100	1	Inf	-Inf	0	0	0	0	0	0	0	0	0	0	0;
	170	99.9	20.7	54.23686	-20.6272	0.993364	100	1	120	0	0	0	0	0	0	0	0	0	0	0	0;
	172	135.8	13	91.61313	-30.9805	1.087684	100	1	200	0	0	0	0	0	0	0	0	0	0	0	0;
	174	268.6	61.3	130.1877	-53.534	1.075867	100	1	300	100	0	0	0	0	0	0	0	0	0	0	0;
	175	2.64	3.05	Inf	-Inf	1.092354	100	1	Inf	-Inf	0	0	0	0	0	0	0	0	0	0	0;
	177	292.2	-21.9	123.8859	-59.5392	1.105553	100	1	300	0	0	0	0	0	0	0	0	0	0	0	0;
	181	5.2	0.3	0.3	0.3	1.057864	100	1	5.2	5.2	0	0	0	0	0	0	0	0	0	0	0;
	186	0.42	0	Inf	-Inf	1.03615	100	1	Inf	-Inf	0	0	0	0	0	0	0	0	0	0	0;
	188	25.4	5.3	18.70203	-6.16587	0.972727	100	1	40	0	0	0	0	0	0	0	0	0	0	0	0;
	191	123.91	52.96	Inf	-Inf	1.040354	100	1	Inf	-Inf	0	0	0	0	0	0	0	0	0	0	0;
	193	164.8	64.9	191.9957	-52.889	1.056395	100	1	400	133.333333	0	0	0	0	0	0	0	0	0	0	0;
	197	11.16	5.88	Inf	-Inf	1.049023	100	1	Inf	-Inf	0	0	0	0	0	0	0	0	0	0	0;
	198	1171	381.4	937.433	-288.159	1.079342	100	1	2000	666.666666	0	0	0	0	0	0	0	0	0	0	0;
	199	668.7	-45.9	402.9197	-146.951	1.0985	100	1	900	300	0	0	0	0	0	0	0	0	0	0	0;
	200	296	62	183.9209	-65.2995	1.076684	100	1	400	133.33333	0	0	0	0	0	0	0	0	0	0	0;
	201	28.9	2.9	12.50527	-5.62181	0.944667	100	1	29.60204	9.867347	0	0	0	0	0	0	0	0	0	0	0;
	209	2.13	0.78	Inf	-Inf	1.011746	100	1	Inf	-Inf	0	0	0	0	0	0	0	0	0	0	0;
	210	0.13	1	Inf	-Inf	1.04248	100	1	Inf	-Inf	0	0	0	0	0	0	0	0	0	0	0;
	217	39	15.8	38.52133	-11.2425	1.036909	100	1	80	0	0	0	0	0	0	0	0	0	0	0	0;
	224	439	127.6	378.0823	-112.594	1.057909	100	1	800	266.666666	0	0	0	0	0	0	0	0	0	0	0;
	226	52.2	9.6	37.47434	-12.3498	1.0115	100	1	80	0	0	0	0	0	0	0	0	0	0	0	0;
	232	423.2	37.6	220.6567	-85.886	1.102342	100	1	500	166.666667	0	0	0	0	0	0	0	0	0	0	0;
	235	0.68	14.79	Inf	-Inf	1.033422	100	1	Inf	-Inf	0	0	0	0	0	0	0	0	0	0	0;
	238	45.4	9.6	38.09511	-11.7155	1.028136	100	1	80	0	0	0	0	0	0	0	0	0	0	0	0;
	243	0.13	1	Inf	-Inf	1.079235	100	1	Inf	-Inf	0	0	0	0	0	0	0	0	0	0	0;
	253	49.2	10	37.70184	-12.0883	0.979909	100	1	80	0	0	0	0	0	0	0	0	0	0	0	0;
	257	1295.6	65.4	924.6445	-300.349	1.104	100	1	2000	666.666666	0	0	0	0	0	0	0	0	0	0	0;
	263	52.7	-0.5	26.01981	-10.8118	1.090773	100	1	60	0	0	0	0	0	0	0	0	0	0	0	0;
	272	1204	144.4	721.2503	-258.712	1.078658	100	1	1600	533.333332	0	0	0	0	0	0	0	0	0	0	0;
	274	14.85	4.95	Inf	-Inf	0.97336	100	1	Inf	-Inf	0	0	0	0	0	0	0	0	0	0	0;
	281	95.1	21.4	42.62279	-18.7213	1.014045	100	1	100	0	0	0	0	0	0	0	0	0	0	0	0;
	282	-2.1	286.38	99999	-99999	1.092632	100	1	-2.1	-2.1	0	0	0	0	0	0	0	0	0	0	0;
	284	0.16	2.91	Inf	-Inf	1.075726	100	1	Inf	-Inf	0	0	0	0	0	0	0	0	0	0	0;
	292	94	22.2	95.31674	-27.2949	1.087711	100	1	200	0	0	0	0	0	0	0	0	0	0	0	0;
	295	213.6	26.5	188.9056	-56.1422	0.948091	100	1	400	133.333333	0	0	0	0	0	0	0	0	0	0	0;
	303	-1.81	1.5	Inf	-Inf	1.030147	100	1	Inf	-Inf	0	0	0	0	0	0	0	0	0	0	0;
	304	83.7	12.6	55.54403	-19.1586	1.076818	100	1	120	0	0	0	0	0	0	0	0	0	0	0	0;
	308	12.84	3.2	Inf	-Inf	1.060331	100	1	Inf	-Inf	0	0	0	0	0	0	0	0	0	0	0;
	313	160.4	20.8	110.5715	-36.9041	1.102211	100	1	240	0	0	0	0	0	0	0	0	0	0	0	0;
	316	0.15	1.93	Inf	-Inf	1.029313	100	1	Inf	-Inf	0	0	0	0	0	0	0	0	0	0	0;
	317	1250.4	256.2	926.3492	-297.678	1.092132	100	1	2000	666.666666	0	0	0	0	0	0	0	0	0	0	0;
	320	4.86	2.15	Inf	-Inf	0.975854	100	1	Inf	-Inf	0	0	0	0	0	0	0	0	0	0	0;
	325	238.3	26.9	186.3895	-58.5035	1.095395	100	1	400	133.333333	0	0	0	0	0	0	0	0	0	0	0;
	326	0.03	0.68	Inf	-Inf	0.97953	100	1	Inf	-Inf	0	0	0	0	0	0	0	0	0	0	0;
	334	318.8	103.6	282.9458	-84.3021	1.092053	100	1	600	200	0	0	0	0	0	0	0	0	0	0	0;
	338	0.18	1	Inf	-Inf	1.064448	100	1	Inf	-Inf	0	0	0	0	0	0	0	0	0	0	0;
	339	106.95	44.5	Inf	-Inf	0.999614	100	1	Inf	-Inf	0	0	0	0	0	0	0	0	0	0	0;
	343	42.2	17.4	38.39833	-11.4385	1.090682	100	1	80	0	0	0	0	0	0	0	0	0	0	0	0;
	348	0.19	4.38	Inf	-Inf	1.086247	100	1	Inf	-Inf	0	0	0	0	0	0	0	0	0	0	0;
	350	69	6	56.72846	-17.8435	1.0236	100	1	120	0	0	0	0	0	0	0	0	0	0	0	0;
	355	2404.4	187.9	1224.256	-490.165	1.082	100	1	2800	933.333331	0	0	0	0	0	0	0	0	0	0	0;
	361	30.67	11.83	Inf	-Inf	0.997732	100	1	Inf	-Inf	0	0	0	0	0	0	0	0	0	0	0;
	362	6.57	4.31	Inf	-Inf	1.021904	100	1	Inf	-Inf	0	0	0	0	0	0	0	0	0	0	0;
	365	9.81	3.56	Inf	-Inf	1.012912	100	1	Inf	-Inf	0	0	0	0	0	0	0	0	0	0	0;
	367	30.4	-0.7	22.21964	-17.3452	0.949182	100	1	61.22614	0	0	0	0	0	0	0	0	0	0	0	0;
	369	3.31	1.62	Inf	-Inf	1.034669	100	1	Inf	-Inf	0	0	0	0	0	0	0	0	0	0	0;
	370	35.9	4.4	17.65988	-7.27293	1.024636	100	1	40	0	0	0	0	0	0	0	0	0	0	0	0;
	371	231	24.5	124.1169	-49.8432	1.014864	100	1	280	0	0	0	0	0	0	0	0	0	0	0	0;
	381	636.3	103.6	304.3814	-125.481	1.070579	100	1	700	233.333331	0	0	0	0	0	0	0	0	0	0	0;
	388	142.98	57.87	Inf	-Inf	1.059877	100	1	Inf	-Inf	0	0	0	0	0	0	0	0	0	0	0;
	390	436	105.5	217.1751	-89.2166	1.047842	100	1	500	166.666665	0	0	0	0	0	0	0	0	0	0	0;
	394	74	7	45.10484	-16.1804	1.021182	100	1	100	0	0	0	0	0	0	0	0	0	0	0	0;
	395	308.6	-28.2	175.156	-69.2068	1.098682	100	1	400	0	0	0	0	0	0	0	0	0	0	0	0;
	396	83.1	9.9	55.72715	-19.0053	1.085545	100	1	120	0	0	0	0	0	0	0	0	0	0	0	0;
	398	4.5	0.6	0.6	0.6	1.0075	100	1	4.5	4.5	0	0	0	0	0	0	0	0	0	0	0;
	402	5.37	2.33	Inf	-Inf	1.045887	100	1	Inf	-Inf	0	0	0	0	0	0	0	0	0	0	0;
	403	39.9	3.6	16.84024	-8.04071	1.001545	100	1	40	0	0	0	0	0	0	0	0	0	0	0	0;
	408	47.6	11.8	37.86198	-11.9408	1.012818	100	1	80	0	0	0	0	0	0	0	0	0	0	0	0;
	409	260.1	75.6	257.2252	-74.3989	1.077842	100	1	540	0	0	0	0	0	0	0	0	0	0	0	0;
	410	6.88	3.44	Inf	-Inf	1.057826	100	1	Inf	-Inf	0	0	0	0	0	0	0	0	0	0	0;
	411	42.5	6.1	44.79799	-39.8056	0.996818	100	1	129.18183	0	0	0	0	0	0	0	0	0	0	0	0;
	427	16.34	5.12	Inf	-Inf	1.045996	100	1	Inf	-Inf	0	0	0	0	0	0	0	0	0	0	0;
	438	229.5	-11.1	132.4063	-50.8474	0.989364	100	1	300	0	0	0	0	0	0	0	0	0	0	0	0;
	441	3.8	2.48	Inf	-Inf	1.011891	100	1	Inf	-Inf	0	0	0	0	0	0	0	0	0	0	0;
	442	8.5	1.1	1.1	1.1	1.031	100	1	8.5	8.5	0	0	0	0	0	0	0	0	0	0	0;
	444	105.4	38	94.56444	-28.1008	1.099	100	1	200	0	0	0	0	0	0	0	0	0	0	0	0;
	451	135.89	60.88	Inf	-Inf	1.032798	100	1	Inf	-Inf	0	0	0	0	0	0	0	0	0	0	0;
	459	19.83	5.95	Inf	-Inf	0.960088	100	1	Inf	-Inf	0	0	0	0	0	0	0	0	0	0	0;
	462	101.4	5.8	94.3813	-28.0441	1.078553	100	1	200	0	0	0	0	0	0	0	0	0	0	0	0;
	466	129.6	25.6	72.50375	-27.2399	1.075364	100	1	160	0	0	0	0	0	0	0	0	0	0	0	0;
	467	539.4	133.2	261.7932	-106.67	1.075818	100	1	600	199.999998	0	0	0	0	0	0	0	0	0	0	0;
	469	192.6	28	85.62814	-37.2118	1.031395	100	1	200	66.666666	0	0	0	0	0	0	0	0	0	0	0;
	503	0.18	3.57	Inf	-Inf	1.04818	100	1	Inf	-Inf	0	0	0	0	0	0	0	0	0	0	0;
	509	6.9	3	18.46584	-19.3502	1.040727	100	1	56.816328	0	0	0	0	0	0	0	0	0	0	0	0;
	522	0.13	1	Inf	-Inf	1.078858	100	1	Inf	-Inf	0	0	0	0	0	0	0	0	0	0	0;
	523	55.7	4.4	25.87924	-11.0132	0.997091	100	1	60	0	0	0	0	0	0	0	0	0	0	0	0;
	527	33.6	7.3	17.88329	-7.03048	1.057636	100	1	40	0	0	0	0	0	0	0	0	0	0	0	0;
	531	249	66.8	185.5624	-59.3858	1.0595	100	1	400	133.333333	0	0	0	0	0	0	0	0	0	0	0;
	534	400.8	78.8	380.3121	-110.078	1.094921	100	1	800	266.666666	0	0	0	0	0	0	0	0	0	0	0;
	557	38.2	-3.3	17.0903	-7.78858	1.096591	100	1	40	0	0	0	0	0	0	0	0	0	0	0	0;
	558	379.2	55.2	217.8958	-81.1598	1.079273	100	1	480	159.999996	0	0	0	0	0	0	0	0	0	0	0;
	559	9.73	6.29	Inf	-Inf	0.973935	100	1	Inf	-Inf	0	0	0	0	0	0	0	0	0	0	0;
	560	671.2	61.6	351.176	-139.111	1.082368	100	1	800	266.666664	0	0	0	0	0	0	0	0	0	0	0;
	569	152.4	5.7	78.788	-31.6917	0.992455	100	1	180	0	0	0	0	0	0	0	0	0	0	0	0;
	576	109.8	21.6	52.99446	-21.8745	1.056636	100	1	120	0	0	0	0	0	0	0	0	0	0	0	0;
	577	20.59	8.08	Inf	-Inf	1.020676	100	1	Inf	-Inf	0	0	0	0	0	0	0	0	0	0	0;
	578	133.7	56	135.5178	-38.9046	1.050773	100	1	280	0	0	0	0	0	0	0	0	0	0	0	0;
	580	1.23	-0.1	Inf	-Inf	1.081123	100	1	Inf	-Inf	0	0	0	0	0	0	0	0	0	0	0;
	581	38.7	4	90.12852	-93.0288	1.085368	100	1	276.09134	0	0	0	0	0	0	0	0	0	0	0	0;
	584	0.59	0.83	Inf	-Inf	1.05456	100	1	Inf	-Inf	0	0	0	0	0	0	0	0	0	0	0;
	586	47.2	5.6	37.9476	-11.8693	1.054773	100	1	80	0	0	0	0	0	0	0	0	0	0	0	0;
	589	17.53	3.75	Inf	-Inf	0.950047	100	1	Inf	-Inf	0	0	0	0	0	0	0	0	0	0	0;
	593	0.15	1.93	Inf	-Inf	1.029293	100	1	Inf	-Inf	0	0	0	0	0	0	0	0	0	0	0;
	603	5.61	2.79	Inf	-Inf	1.07087	100	1	Inf	-Inf	0	0	0	0	0	0	0	0	0	0	0;
	608	67	11.9	71.32494	-62.9243	1.063974	100	1	205.80612	0	0	0	0	0	0	0	0	0	0	0	0;
	618	37.4	12.2	38.76588	-11.0648	1.084227	100	1	80	0	0	0	0	0	0	0	0	0	0	0	0;
	622	20.7	5.2	34.74669	-34.262	1.053045	100	1	104.27135	0	0	0	0	0	0	0	0	0	0	0	0;
	627	274.8	-4.8	182.1713	-62.7871	1.09875	100	1	400	133.333332	0	0	0	0	0	0	0	0	0	0	0;
	631	0.61	1.21	Inf	-Inf	1.073545	100	1	Inf	-Inf	0	0	0	0	0	0	0	0	0	0	0;
	632	634.8	61.4	357.3998	-132.748	1.096316	100	1	800	266.666666	0	0	0	0	0	0	0	0	0	0	0;
	633	274.8	8.2	129.9381	-53.9068	1.016727	100	1	300	100	0	0	0	0	0	0	0	0	0	0	0;
	643	16	1.4	22.22661	-20.8341	1.085395	100	1	65.29948	0	0	0	0	0	0	0	0	0	0	0	0;
	645	451.2	139.2	377.0113	-113.626	1.055184	100	1	800	266.666666	0	0	0	0	0	0	0	0	0	0	0;
	647	99.3	9.3	53.98251	-20.7936	0.991455	100	1	120	0	0	0	0	0	0	0	0	0	0	0	0;
	648	453.4	122.2	376.3604	-114.083	1.092237	100	1	800	266.666666	0	0	0	0	0	0	0	0	0	0	0;
	651	17.19	5.2	Inf	-Inf	1.039331	100	1	Inf	-Inf	0	0	0	0	0	0	0	0	0	0	0;
	652	0.54	0.99	Inf	-Inf	1.043796	100	1	Inf	-Inf	0	0	0	0	0	0	0	0	0	0	0;
	659	419.2	174.6	379.6141	-111.091	1.097447	100	1	800	266.666666	0	0	0	0	0	0	0	0	0	0	0;
	665	96.77	44.54	Inf	-Inf	1.04125	100	1	Inf	-Inf	0	0	0	0	0	0	0	0	0	0	0;
	666	14.71	4.51	Inf	-Inf	1.033004	100	1	Inf	-Inf	0	0	0	0	0	0	0	0	0	0	0;
	668	102	22	107.8562	-95.1534	1.016545	100	1	311.391	34.599	0	0	0	0	0	0	0	0	0	0	0;
	669	467	46	212.9697	-93.4506	1.079789	100	1	500	166.666665	0	0	0	0	0	0	0	0	0	0	0;
	677	49.2	10.4	37.77862	-12.0423	0.989364	100	1	80	0	0	0	0	0	0	0	0	0	0	0	0;
	679	215.4	61.2	105.6865	-43.844	0.995136	100	1	240	0	0	0	0	0	0	0	0	0	0	0	0;
	681	208.5	30	136.9403	-47.2439	1.023545	100	1	300	0	0	0	0	0	0	0	0	0	0	0	0;
	686	116.7	11.4	51.29568	-23.4138	1.066816	100	1	120	0	0	0	0	0	0	0	0	0	0	0	0;
	692	37.3	6.7	27.88098	-8.97053	1.081455	100	1	60	0	0	0	0	0	0	0	0	0	0	0	0;
	693	361.7	56.6	174.172	-71.125	1.000409	100	1	400	133.333333	0	0	0	0	0	0	0	0	0	0	0;
	694	170.7	3.9	76.76137	-33.8382	1.062591	100	1	180	0	0	0	0	0	0	0	0	0	0	0	0;
	698	0.43	0	Inf	-Inf	1.065508	100	1	Inf	-Inf	0	0	0	0	0	0	0	0	0	0	0;
	702	14.87	4.17	Inf	-Inf	0.988124	100	1	Inf	-Inf	0	0	0	0	0	0	0	0	0	0	0;
	703	55.14	27.14	Inf	-Inf	1.081084	100	1	Inf	-Inf	0	0	0	0	0	0	0	0	0	0	0;
	704	30.8	3.3	18.16351	-6.7311	1.063773	100	1	40	0	0	0	0	0	0	0	0	0	0	0	0;
	705	16.5	2	12.36838	-9.36122	1.078	100	1	33.58376	0	0	0	0	0	0	0	0	0	0	0	0;
	706	37.8	8.7	17.34023	-7.58033	1.068842	100	1	45	0	0	0	0	0	0	0	0	0	0	0	0;
	707	50.8	3.2	37.43079	-12.3168	1.024136	100	1	80	0	0	0	0	0	0	0	0	0	0	0	0;
	711	26	14.72	Inf	-Inf	1.076152	100	1	Inf	-Inf	0	0	0	0	0	0	0	0	0	0	0;
	716	0.15	1	Inf	-Inf	1.077179	100	1	Inf	-Inf	0	0	0	0	0	0	0	0	0	0	0;
	717	621.8	175.4	567.628	-167.477	1.103342	100	1	1200	399.999999	0	0	0	0	0	0	0	0	0	0	0;
	720	58.4	9.8	36.75392	-13.0447	1.073864	100	1	80	0	0	0	0	0	0	0	0	0	0	0	0;
	721	31.6	14.2	39.0043	-10.7449	1.014545	100	1	80	0	0	0	0	0	0	0	0	0	0	0	0;
	728	111.2	22.4	74.03435	-25.5438	1.038955	100	1	160	0	0	0	0	0	0	0	0	0	0	0	0;
	732	1820	154	864.4675	-360.968	1.085842	100	1	2000	666.666665	0	0	0	0	0	0	0	0	0	0	0;
	736	-17.83	9.5	Inf	-Inf	1.059217	100	1	Inf	-Inf	0	0	0	0	0	0	0	0	0	0	0;
	739	-3.15	1.79	Inf	-Inf	1.03953	100	1	Inf	-Inf	0	0	0	0	0	0	0	0	0	0	0;
	746	1274.2	277.8	926.6834	-298.308	1.084658	100	1	2000	666.666666	0	0	0	0	0	0	0	0	0	0	0;
	752	85.2	10.2	55.58738	-19.18	0.999909	100	1	120	0	0	0	0	0	0	0	0	0	0	0	0;
	753	507	76.4	264.7092	-102.832	1.013227	100	1	600	200	0	0	0	0	0	0	0	0	0	0	0;
	757	44	4.2	27.19461	-9.66223	1.066136	100	1	60	0	0	0	0	0	0	0	0	0	0	0	0;
	764	97.5	15.9	54.35089	-20.4699	1.091289	100	1	120	0	0	0	0	0	0	0	0	0	0	0	0;
	767	66.8	3.9	49.63444	-38.1223	1.045867	100	1	136.7347	22.789117	0	0	0	0	0	0	0	0	0	0	0;
	768	8.7	1.1	1.1	1.1	1.087553	100	1	8.7	8.7	0	0	0	0	0	0	0	0	0	0	0;
	770	94	32.5	96.63999	-27.8097	1.065727	100	1	200	0	0	0	0	0	0	0	0	0	0	0	0;
	776	855.6	159.3	440.6747	-172.154	1.081211	100	1	1000	333.333333	0	0	0	0	0	0	0	0	0	0	0;
	778	55.8	15.9	57.97606	-16.677	1.054545	100	1	120	0	0	0	0	0	0	0	0	0	0	0	0;
	787	11.81	4.86	Inf	-Inf	1.057058	100	1	Inf	-Inf	0	0	0	0	0	0	0	0	0	0	0;
	790	343.5	24	228.1617	-78.185	1.081263	100	1	500	166.666665	0	0	0	0	0	0	0	0	0	0	0;
	801	2.85	7.24	Inf	-Inf	1.032767	100	1	Inf	-Inf	0	0	0	0	0	0	0	0	0	0	0;
	803	199.4	58.9	138.6001	-45.2708	1.061636	100	1	300	100	0	0	0	0	0	0	0	0	0	0	0;
	806	1702.8	411.6	1097.413	-373.912	1.068474	100	1	2400	799.999998	0	0	0	0	0	0	0	0	0	0	0;
	807	56.7	22.2	58.05788	-16.6605	1.044273	100	1	120	0	0	0	0	0	0	0	0	0	0	0	0;
	809	289.6	55.2	141.9267	-57.7392	1.016409	100	1	320	0	0	0	0	0	0	0	0	0	0	0	0;
	815	4.94	3.67	Inf	-Inf	0.996099	100	1	Inf	-Inf	0	0	0	0	0	0	0	0	0	0	0;
	825	1249.4	419	772.113	-269.937	1.047395	100	1	1700	566.666665	0	0	0	0	0	0	0	0	0	0	0;
	828	231	20	134.4455	-49.7625	1.079591	100	1	300	0	0	0	0	0	0	0	0	0	0	0	0;
	829	32	6.4	18.22456	-6.72812	1.014182	100	1	40	0	0	0	0	0	0	0	0	0	0	0	0;
	838	27.4	9.3	28.69322	-8.15604	1.067318	100	1	60	0	0	0	0	0	0	0	0	0	0	0	0;
	841	680.7	26.7	406.6568	-144.751	1.099553	100	1	900	300	0	0	0	0	0	0	0	0	0	0	0;
	864	10.1	3.95	Inf	-Inf	1.066541	100	1	Inf	-Inf	0	0	0	0	0	0	0	0	0	0	0;
	877	24.29	8.74	Inf	-Inf	0.992788	100	1	Inf	-Inf	0	0	0	0	0	0	0	0	0	0	0;
...
];

%% branch data
%	fbus	tbus	r	x	b	rateA	rateB	rateC	ratio	angle	status	angmin	angmax
mpc.branch = [
	4679	2816	0.0006	0.00616	0.19426	837.866207	837.866207	837.866207	0	0	1	-360	360;
	4679	7951	0.0005	0.0074	0.16192	939.310725	939.310725	939.310725	0	0	1	-360	360;
	1976	2843	0.00107	0.00626	0.0176	489.131391	489.131391	489.131391	0	0	1	-360	360;
	1976	2940	0.000841	0.0055	0.00899	488.494654	488.494654	488.494654	0	0	1	-360	360;
	3197	645	0.00143	0.01563	0.4664	1660.15923	1660.15923	1660.15923	0	0	1	-360	360;
	3197	4123	0.00146	0.01692	0.38774	1742.65082	1742.65082	1742.65082	0	0	1	-360	360;
	384	4925	7e-05	0.00057	0.01238	1713.38817	1713.38817	1713.38817	0	0	1	-360	360;
	384	4276	6e-05	0.00056	0.01238	1530.30638	1530.30638	1530.30638	0	0	1	-360	360;
	5407	6736	0.003349	0.01656	0.02751	231.433719	231.433719	231.433719	0	0	1	-360	360;
	5407	2899	0.003409	0.016211	0.02803	286.353101	286.353101	286.353101	0	0	1	-360	360;
	4077	6736	0.003479	0.01586	0.02855	235.506394	235.506394	235.506394	0	0	1	-360	360;
	4077	2899	0.003099	0.017969	0.02543	282.911066	282.911066	282.911066	0	0	1	-360	360;
	480	8352	0.00127	0.01842	0.46004	830.576213	830.576213	830.576213	0	0	1	-360	360;
	480	756	0.00126	0.01847	0.48802	1552.79242	1552.79242	1552.79242	0	0	1	-360	360;
	1510	105	0.0013	0.01808	0.46926	1220.32104	1220.32104	1220.32104	0	0	1	-360	360;
	1510	3134	0.00131	0.01765	0.50568	1757.02217	1757.02217	1757.02217	0	0	1	-360	360;
	4625	1654	0.00065	0.01311	4.8838	2817.51882	2817.51882	2817.51882	0	0	1	-360	360;
	4625	5805	0.00067	0.00974	5.004478	2634.65323	2634.65323	2634.65323	0	0	1	-360	360;
	4733	7105	0.00236	0.01418	0.02922	566.739703	566.739703	566.739703	0	0	1	-360	360;
	4733	7048	0.002169	0.015909	0.02764	524.512373	524.512373	524.512373	0	0	1	-360	360;
	319	1163	0.00027	0.00254	0.08831	1378.41176	1378.41176	1378.41176	0	0	1	-360	360;
	319	6912	0.00027	0.00259	0.08492	1131.56622	1131.56622	1131.56622	0	0	1	-360	360;
	2367	1163	0.00033	0.00302	0.10365	1462.49417	1462.49417	1462.49417	0	0	1	-360	360;
	2367	818	0.00029	0.00312	0.08619	1630.6853	1630.6853	1630.6853	0	0	1	-360	360;
	1685	5933	0.000289	0.00137	0.22216	544.409342	544.409342	544.409342	0	0	1	-360	360;
	1685	6917	0.000219	0.00263	0.28226	281.672649	281.672649	281.672649	0	0	1	-360	360;
	1946	5933	0.000289	0.001341	0.22651	465.512314	465.512314	465.512314	0	0	1	-360	360;
	1946	7971	0.000229	0.00257	0.2878	289.387031	289.387031	289.387031	0	0	1	-360	360;
	5998	5933	0.000841	0.00689	0.00957	522.453554	522.453554	522.453554	0	0	1	-360	360;
	5998	1505	0.000979	0.00586	0.01124	503.907031	503.907031	503.907031	0	0	1	-360	360;
	5239	5933	0.00014	0.0012	0.0041	268.472275	268.472275	268.472275	0	0	1	-360	360;
	5239	7112	0.000211	0.001539	0.00302	280.884255	280.884255	280.884255	0	0	1	-360	360;
	4742	5933	0.000401	0.004901	0.01141	292.571856	292.571856	292.571856	0	0	1	-360	360;
	4742	7112	0.000219	0.00151	0.00617	544.34342	544.34342	544.34342	0	0	1	-360	360;
	7323	5933	0.000729	0.004539	0.00827	509.486382	509.486382	509.486382	0	0	1	-360	360;
	7323	2501	0.00062	0.00482	0.00701	512.761136	512.761136	512.761136	0	0	1	-360	360;
	2700	5509	0.00052	0.00407	0.12738	1486.45584	1486.45584	1486.45584	0	0	1	-360	360;
	2700	3130	0.00034	0.00502	0.10364	1862.3631	1862.3631	1862.3631	0	0	1	-360	360;
	6860	5509	0.00065	0.00698	0.21868	1729.12787	1729.12787	1729.12787	0	0	1	-360	360;
	6860	8006	0.00059	0.00806	0.19224	1708.37876	1708.37876	1708.37876	0	0	1	-360	360;
	6120	8045	0.00063	0.00464	0.01791	502.488759	502.488759	502.488759	0	0	1	-360	360;
	6120	4620	0.000599	0.005099	0.00753	540.018489	540.018489	540.018489	0	0	1	-360	360;
	4509	4351	0.00064	0.00307	0.00977	328.235579	328.235579	328.235579	0	0	1	-360	360;
	4509	6956	0.000659	0.003	0.00994	279.764726	279.764726	279.764726	0	0	1	-360	360;
	7816	6146	0.00053	0.00528	0.13049	1106.54092	1106.54092	1106.54092	0	0	1	-360	360;
	7816	7429	0.00056	0.0053	0.13554	1298.46535	1298.46535	1298.46535	0	0	1	-360	360;
	2826	4351	0.0018	0.007919	0.0274	283.888462	283.888462	283.888462	0	0	1	-360	360;
	2826	6489	0.001651	0.00862	0.02553	282.802085	282.802085	282.802085	0	0	1	-360	360;
	4932	6146	0.00045	0.00545	0.10855	1383.10326	1383.10326	1383.10326	0	0	1	-360	360;
	4932	818	0.00052	0.00476	0.12312	1549.81811	1549.81811	1549.81811	0	0	1	-360	360;
	2075	6238	0.01286	0.037421	0.00426	57.157677	57.157677	57.157677	0	0	1	-360	360;
	2075	5131	0.032397	0.123	0.01071	57.157677	57.157677	57.157677	0	0	1	-360	360;
	428	6238	0.032851	0.069727	0.00686	57.157677	57.157677	57.157677	0	0	1	-360	360;
	428	7299	0.059942	0.112802	0.01253	57.157677	57.157677	57.157677	0	0	1	-360	360;
	7184	6775	0.00011	0.00109	0.0275	1117.5233	1117.5233	1117.5233	0	0	1	-360	360;
	7184	8079	0.00011	0.00107	0.02724	1195.98947	1195.98947	1195.98947	0	0	1	-360	360;
	5649	6968	0.000461	0.00395	0.00707	647.787002	647.787002	647.787002	0	0	1	-360	360;
	5649	1374	0.000599	0.003789	0.00905	609.489453	609.489453	609.489453	0	0	1	-360	360;
	6457	5956	0.00173	0.01542	0.41037	991.605046	991.605046	991.605046	0	0	1	-360	360;
	6457	3958	0.00166	0.02083	0.38623	1139.93957	1139.93957	1139.93957	0	0	1	-360	360;
	3151	8031	0.006314	0.018488	0.0014	57.157677	57.157677	57.157677	0	0	1	-360	360;
	3151	1823	0.015727	0.037669	0.00402	57.157677	57.157677	57.157677	0	0	1	-360	360;
	6856	6402	0.00374	0.02095	0.02838	813.890259	813.890259	813.890259	0	0	1	-360	360;
	6856	3936	0.00511	0.019461	0.03356	805.730048	805.730048	805.730048	0	0	1	-360	360;
	975	2598	0.011281	0.050771	0.08633	470.645455	470.645455	470.645455	0	0	1	-360	360;
	975	2345	0.0115	0.049719	0.088	449.934942	449.934942	449.934942	0	0	1	-360	360;
	3594	2598	0.011719	0.048659	0.08965	452.083309	452.083309	452.083309	0	0	1	-360	360;
	3594	2345	0.01193	0.047599	0.09132	454.348277	454.348277	454.348277	0	0	1	-360	360;
	117	2691	0.00064	0.00715	0.21543	1506.89297	1506.89297	1506.89297	0	0	1	-360	360;
	117	4000	0.00089	0.00712	0.21232	1309.97954	1309.97954	1309.97954	0	0	1	-360	360;
	4587	628	0.00048	0.00555	0.12144	1001.31056	1001.31056	1001.31056	0	0	1	-360	360;
	4587	7131	0.00047	0.00566	0.11886	1106.93978	1106.93978	1106.93978	0	0	1	-360	360;
	6245	628	0.00046	0.00524	0.11627	1061.99403	1061.99403	1061.99403	0	0	1	-360	360;
	6245	7131	0.00052	0.00514	0.13178	1066.33341	1066.33341	1066.33341	0	0	1	-360	360;
	1324	4099	0.00438	0.010686	0.00092	72.65579	72.65579	72.65579	0	0	1	-360	360;
	1324	6038	0.031347	0.062653	0.00639	72.65579	72.65579	72.65579	0	0	1	-360	360;
	5891	4499	0.00029	0.00298	0.08127	1628.17106	1628.17106	1628.17106	0	0	1	-360	360;
	5891	5519	0.0003	0.00291	0.08283	1543.31858	1543.31858	1543.31858	0	0	1	-360	360;
	1258	8182	0.00155	0.01529	0.48969	1213.99791	1213.99791	1213.99791	0	0	1	-360	360;
	1258	2862	0.00148	0.0152	0.35671	1311.67567	1311.67567	1311.67567	0	0	1	-360	360;
	7887	7378	0.000169	0.00096	0.00546	322.117283	322.117283	322.117283	0	0	1	-360	360;
	7887	5621	0.000182	0.000942	0.00558	322.117283	322.117283	322.117283	0	0	1	-360	360;
	5142	381	0.00016	0.00184	0.05863	2676.56513	2676.56513	2676.56513	0	0	1	-360	360;
	5142	6559	0.00022	0.00287	0.072	2676.56513	2676.56513	2676.56513	0	0	1	-360	360;
	3506	5894	0.00015	0.00187	0.05744	2521.34013	2521.34013	2521.34013	0	0	1	-360	360;
	3506	4345	0.00022	0.00266	0.07043	2521.34013	2521.34013	2521.34013	0	0	1	-360	360;
	610	8066	0.00138	0.0174	0.4384	1321.99	1321.99	1321.99	0	0	1	-360	360;
	610	2834	0.00272	0.0288	0.87792	1111.99789	1111.99789	1111.99789	0	0	1	-360	360;
	7365	4709	0.00065	0.01024	0.22418	1854.81642	1854.81642	1854.81642	0	0	1	-360	360;
	7365	5452	0.00073	0.01004	0.25405	1897.31506	1897.31506	1897.31506	0	0	1	-360	360;
	8112	4709	0.00075	0.00983	0.25905	1927.10557	1927.10557	1927.10557	0	0	1	-360	360;
	8112	5452	0.00076	0.00963	0.26401	1937.40542	1937.40542	1937.40542	0	0	1	-360	360;
	6482	6695	0.00042	0.02666	0	1205.77988	1205.77988	1205.77988	0	0	1	-360	360;
	3646	8036	0.00029	0.0026	0.11024	2185.86218	2185.86218	2185.86218	0	0	1	-360	360;
	3646	5247	0.00022	0.00303	0.09849	1209.37815	1209.37815	1209.37815	0	0	1	-360	360;
	6344	3424	0.001	0.006159	0.01409	267.888504	267.888504	267.888504	0	0	1	-360	360;
	6344	8264	0.00113	0.00657	0.01345	543.343542	543.343542	543.343542	0	0	1	-360	360;
	1102	7486	0.0013	0.01277	0.3118	1318.15149	1318.15149	1318.15149	0	0	1	-360	360;
	1102	6646	0.00163	0.01808	0.39172	1409.43965	1409.43965	1409.43965	0	0	1	-360	360;
	7841	95	0.00047	0.00406	0.10714	1325.91472	1325.91472	1325.91472	0	0	1	-360	360;
	7841	5337	0.00235	0.02343	0.53841	1334.22292	1334.22292	1334.22292	0	0	1	-360	360;
	86	5816	0.00036	0.00445	0.18766	1579.1887	1579.1887	1579.1887	0	0	1	-360	360;
	86	1498	0.00017	0.0025	0	1911.92861	1911.92861	1911.92861	0	0	1	-360	360;
	3987	5816	0.00036	0.00436	0.19134	1593.21911	1593.21911	1593.21911	0	0	1	-360	360;
	3987	3164	0.00017	0.00255	0	1817.45026	1817.45026	1817.45026	0	0	1	-360	360;
	1725	2919	0.00096	0.00995	0.22139	1380.46923	1380.46923	1380.46923	0	0	1	-360	360;
	1725	6159	0.00152	0.01949	0.37613	1402.56233	1402.56233	1402.56233	0	0	1	-360	360;
	4828	2919	0.00094	0.01014	0.21687	1268.95325	1268.95325	1268.95325	0	0	1	-360	360;
	4828	6159	0.00149	0.01986	0.36829	1430.78506	1430.78506	1430.78506	0	0	1	-360	360;
	2614	2919	0.00107	0.01243	0.24707	1178.38449	1178.38449	1178.38449	0	0	1	-360	360;
	2614	2342	0.00102	0.01034	0.24764	1234.99251	1234.99251	1234.99251	0	0	1	-360	360;
	3381	4411	0.0047	0.02061	0.03819	447.966813	447.966813	447.966813	0	0	1	-360	360;
	3381	3355	0.00739	0.040531	0.05525	404.795239	404.795239	404.795239	0	0	1	-360	360;
	5504	7837	0.00049	0.00611	0.19795	1947.28074	1947.28074	1947.28074	0	0	1	-360	360;
	5504	6646	0.00035	0.00431	0.0827	1567.79298	1567.79298	1567.79298	0	0	1	-360	360;
	4882	937	0.00261	0.01344	0.0252	437.660522	437.660522	437.660522	0	0	1	-360	360;
	4882	3204	0.003521	0.019591	0.03391	429.711413	429.711413	429.711413	0	0	1	-360	360;
	6232	3117	0.0025	0.01419	0.03183	372.206218	372.206218	372.206218	0	0	1	-360	360;
	6232	4589	0.00287	0.0237	0.04153	385.660754	385.660754	385.660754	0	0	1	-360	360;
	6070	6116	0.00088	0.00956	0.22766	1569.53387	1569.53387	1569.53387	0	0	1	-360	360;
	6070	261	0.00095	0.00877	0.19307	1400.70692	1400.70692	1400.70692	0	0	1	-360	360;
	1875	682	0.00332	0.020651	0.02957	470.772726	470.772726	470.772726	0	0	1	-360	360;
	1875	2772	0.003969	0.018781	0.03027	471.867867	471.867867	471.867867	0	0	1	-360	360;
	2622	2483	0.002849	0.014909	0.02173	445.358899	445.358899	445.358899	0	0	1	-360	360;
	2622	1435	0.00439	0.02451	0.0346	451.864585	451.864585	451.864585	0	0	1	-360	360;
	1389	7878	0.0002	0.0018	0.07654	2095.83247	2095.83247	2095.83247	0	0	1	-360	360;
	1389	7605	0.00025	0.00261	0.06775	2102.64923	2102.64923	2102.64923	0	0	1	-360	360;
	6681	7878	0.0002	0.00176	0.07802	2134.4235	2134.4235	2134.4235	0	0	1	-360	360;
	6681	123	0.00025	0.00255	0.06908	1937.40542	1937.40542	1937.40542	0	0	1	-360	360;
	928	5603	0.012488	0.047413	0.00424	67.329076	67.329076	67.329076	0	0	1	-360	360;
	928	6509	0.010479	0.027711	0.00207	85.815012	85.815012	85.815012	0	0	1	-360	360;
	2363	6761	0.00044	0.00428	0.12975	1833.26566	1833.26566	1833.26566	0	0	1	-360	360;
	2363	1217	0.00036	0.00475	0.10092	1994.3919	1994.3919	1994.3919	0	0	1	-360	360;
	4306	4764	0.00058	0.00534	0.13981	1877.33866	1877.33866	1877.33866	0	0	1	-360	360;
	4306	2861	0.00054	0.00589	0.13209	1858.83724	1858.83724	1858.83724	0	0	1	-360	360;
	2670	1301	0.00206	0.02057	0.51797	1174.66906	1174.66906	1174.66906	0	0	1	-360	360;
	2670	1406	0.00077	0.00872	0.20069	961.484786	961.484786	961.484786	0	0	1	-360	360;
	3435	8333	0.00161	0.01963	0.40525	1358.87042	1358.87042	1358.87042	0	0	1	-360	360;
	3435	1406	0.00075	0.00888	0.19651	1403.07505	1403.07505	1403.07505	0	0	1	-360	360;
	1771	6583	0.00016	0.00152	0.04776	1657.35934	1657.35934	1657.35934	0	0	1	-360	360;
	1771	4971	0.00019	0.00163	0.04733	1717.03185	1717.03185	1717.03185	0	0	1	-360	360;
	4966	6583	0.00015	0.0016	0.04863	1564.93846	1564.93846	1564.93846	0	0	1	-360	360;
	4966	4971	0.00015	0.00183	0.03978	1665.4352	1665.4352	1665.4352	0	0	1	-360	360;
	3318	2990	0.00121	0.01426	0.55448	1444.7332	1444.7332	1444.7332	0	0	1	-360	360;
	3318	5013	0.00116	0.01456	0.60295	1466.36887	1466.36887	1466.36887	0	0	1	-360	360;
	407	128	0.00068	0.00727	0.22697	1800.68973	1800.68973	1800.68973	0	0	1	-360	360;
	407	1459	0.0007	0.00734	0.22711	1898.6742	1898.6742	1898.6742	0	0	1	-360	360;
	7167	128	0.00076	0.00712	0.25723	1607.73459	1607.73459	1607.73459	0	0	1	-360	360;
	7167	1459	0.0008	0.00719	0.25739	1927.51496	1927.51496	1927.51496	0	0	1	-360	360;
	1919	1442	0.0002	0.0022	0.062275	1244.20966	1244.20966	1244.20966	0	0	1	-360	360;
	1919	6722	0.0002	0.0022	0.062275	1261.68234	1261.68234	1261.68234	0	0	1	-360	360;
	245	1869	0.000205	0.00215	0.06346	1418.85688	1418.85688	1418.85688	0	0	1	-360	360;
	245	6722	0.000205	0.00215	0.06346	1453.65613	1453.65613	1453.65613	0	0	1	-360	360;
	5385	7644	0.00053	0.00589	0.16224	1317.58283	1317.58283	1317.58283	0	0	1	-360	360;
	5385	740	0.00046	0.00675	0.14064	1137.86565	1137.86565	1137.86565	0	0	1	-360	360;
	7742	7644	0.00054	0.00577	0.1653	1330.82013	1330.82013	1330.82013	0	0	1	-360	360;
	7742	740	0.00045	0.00625	0.13758	1096.47012	1096.47012	1096.47012	0	0	1	-360	360;
	1508	1408	0.00275	0.02752	0.56046	1411.80843	1411.80843	1411.80843	0	0	1	-360	360;
	1508	6962	0.00184	0.01515	0.34348	1346.9758	1346.9758	1346.9758	0	0	1	-360	360;
	2112	3779	0.00438	0.02432	0.03353	333.346238	333.346238	333.346238	0	0	1	-360	360;
	2112	543	0.0043	0.01949	0.03241	339.998629	339.998629	339.998629	0	0	1	-360	360;
	7591	6347	0.00033	0.00269	0.0779	1242.21208	1242.21208	1242.21208	0	0	1	-360	360;
	7591	4460	0.00243	0.01904	0.5944	1144.88118	1144.88118	1144.88118	0	0	1	-360	360;
	853	6347	0.00034	0.00263	0.07939	1144.71598	1144.71598	1144.71598	0	0	1	-360	360;
	853	4460	0.00248	0.01864	0.60583	1111.11461	1111.11461	1111.11461	0	0	1	-360	360;
	6125	5616	0.00122	0.01249	0.30518	1013.27297	1013.27297	1013.27297	0	0	1	-360	360;
	6125	3694	0.00106	0.01031	0.38362	1081.29119	1081.29119	1081.29119	0	0	1	-360	360;
	3009	5616	0.00119	0.01273	0.29895	999.643389	999.643389	999.643389	0	0	1	-360	360;
	3009	3694	0.00108	0.01009	0.39072	1111.15674	1111.15674	1111.15674	0	0	1	-360	360;
	1257	4008	0.001039	0.013711	0.03649	215.929128	215.929128	215.929128	0	0	1	-360	360;
	1257	4677	0.00114	0.011409	0.04302	265.692506	265.692506	265.692506	0	0	1	-360	360;
	7122	5332	0.001021	0.013969	0.03573	215.929128	215.929128	215.929128	0	0	1	-360	360;
	7122	4677	0.001169	0.011159	0.04381	215.929128	215.929128	215.929128	0	0	1	-360	360;
	7257	7434	0	0.000271	0	116.419016	116.419016	116.419016	0	0	1	-360	360;
	2111	7434	0	0.000271	0	107.991376	107.991376	107.991376	0	0	1	-360	360;
	763	136	0.009372	0.035702	0.00318	57.157677	57.157677	57.157677	0	0	1	-360	360;
	763	3273	0.029157	0.103686	0.0096	62.300153	62.300153	62.300153	0	0	1	-360	360;
	479	5017	0.00065	0.00673	0.27895	1520.73579	1520.73579	1520.73579	0	0	1	-360	360;
	479	3793	0.00066	0.00658	0.28412	1707.55538	1707.55538	1707.55538	0	0	1	-360	360;
	3208	2254	0.000969	0.006021	0.02439	569.472221	569.472221	569.472221	0	0	1	-360	360;
	3208	3796	0.00099	0.005901	0.02496	392.38364	392.38364	392.38364	0	0	1	-360	360;
	1057	7795	0.00088	0.006599	0.0224	301.459494	301.459494	301.459494	0	0	1	-360	360;
	1057	4838	0.00086	0.006729	0.02201	497.991593	497.991593	497.991593	0	0	1	-360	360;
	7881	2979	9e-05	0.00077	0.02844	1730.48898	1730.48898	1730.48898	0	0	1	-360	360;
	7881	3848	9e-05	0.00078	0.02787	1594.3288	1594.3288	1594.3288	0	0	1	-360	360;
	4477	2979	8e-05	0.00082	0.02558	1504.1273	1504.1273	1504.1273	0	0	1	-360	360;
	4477	6912	8e-05	0.00076	0.02572	1261.72907	1261.72907	1261.72907	0	0	1	-360	360;
	6130	5017	9e-05	0.00074	0.02909	1625.281	1625.281	1625.281	0	0	1	-360	360;
	6130	3848	9e-05	0.00073	0.02972	1271.96969	1271.96969	1271.96969	0	0	1	-360	360;
	3722	2254	0.00062	0.003781	0.00889	259.689045	259.689045	259.689045	0	0	1	-360	360;
	3722	709	0.000599	0.0035	0.00876	564.635157	564.635157	564.635157	0	0	1	-360	360;
	6233	7795	0.00064	0.00274	0.00858	380.223535	380.223535	380.223535	0	0	1	-360	360;
	6233	1226	0.000651	0.00268	0.0087	613.291582	613.291582	613.291582	0	0	1	-360	360;
	6180	1246	0.00055	0.00685	0.14191	1806.74827	1806.74827	1806.74827	0	0	1	-360	360;
	6180	337	0.00061	0.00639	0.15911	1857.40636	1857.40636	1857.40636	0	0	1	-360	360;
	5463	5017	0.00042	0.00523	0.10137	1525.08636	1525.08636	1525.08636	0	0	1	-360	360;
	5463	7554	0.00045	0.00605	0.10902	1499.50688	1499.50688	1499.50688	0	0	1	-360	360;
	5167	2979	0.0003	0.00228	0.06581	1478.00482	1478.00482	1478.00482	0	0	1	-360	360;
	5167	8079	0.00026	0.00264	0.05674	1225.58779	1225.58779	1225.58779	0	0	1	-360	360;
	3047	8376	0.00536	0.03568	0.04968	567.016727	567.016727	567.016727	0	0	1	-360	360;
...
];

%%-----  OPF Data  -----%%
%% generator cost data
%	1	startup	shutdown	n	x1	y1	...	xn	yn
%	2	startup	shutdown	n	c(n-1)	...	c0
mpc.gencost = [
	2	0	0	3	0	1	0;
	2	0	0	3	0	1	0;
	2	0	0	3	0	1	0;
	2	0	0	3	0	1	0;
	2	0	0	3	0	1	0;
	2	0	0	3	0	1	0;
	2	0	0	3	0	1	0;
	2	0	0	3	0	1	0;
	2	0	0	3	0	1	0;
	2	0	0	3	0	1	0;
	2	0	0	3	0	1	0;
	2	0	0	3	0	1	0;
	2	0	0	3	0	1	0;
	2	0	0	3	0	1	0;
	2	0	0	3	0	1	0;
	2	0	0	3	0	1	0;
	2	0	0	3	0	1	0;
	2	0	0	3	0	1	0;
	2	0	0	3	0	1	0;
	2	0	0	3	0	1	0;
	2	0	0	3	0	1	0;
	2	0	0	3	0	1	0;
	2	0	0	3	0	1	0;
	2	0	0	3	0	1	0;
	2	0	0	3	0	1	0;
	2	0	0	3	0	1	0;
	2	0	0	3	0	1	0;
	2	0	0	3	0	1	0;
	2	0	0	3	0	1	0;
	2	0	0	3	0	1	0;
	2	0	0	3	0	1	0;
	2	0	0	3	0	1	0;
	2	0	0	3	0	1	0;
	2	0	0	3	0	1	0;
	2	0	0	3	0	1	0;
	2	0	0	3	0	1	0;
	2	0	0	3	0	1	0;
	2	0	0	3	0	1	0;
	2	0	0	3	0	1	0;
	2	0	0	3	0	1	0;
	2	0	0	3	0	1	0;
	2	0	0	3	0	1	0;
	2	0	0	3	0	1	0;
	2	0	0	3	0	1	0;
	2	0	0	3	0	1	0;
	2	0	0	3	0	1	0;
	2	0	0	3	0	1	0;
	2	0	0	3	0	1	0;
	2	0	0	3	0	1	0;
	2	0	0	3	0	1	0;
	2	0	0	3	0	1	0;
	2	0	0	3	0	1	0;
	2	0	0	3	0	1	0;
	2	0	0	3	0	1	0;
	2	0	0	3	0	1	0;
	2	0	0	3	0	1	0;
	2	0	0	3	0	1	0;
	2	0	0	3	0	1	0;
	2	0	0	3	0	1	0;
	2	0	0	3	0	1	0;
	2	0	0	3	0	1	0;
	2	0	0	3	0	1	0;
	2	0	0	3	0	1	0;
	2	0	0	3	0	1	0;
	2	0	0	3	0	1	0;
	2	0	0	3	0	1	0;
	2	0	0	3	0	1	0;
	2	0	0	3	0	1	0;
	2	0	0	3	0	1	0;
	2	0	0	3	0	1	0;
	2	0	0	3	0	1	0;
	2	0	0	3	0	1	0;
	2	0	0	3	0	1	0;
	2	0	0	3	0	1	0;
	2	0	0	3	0	1	0;
	2	0	0	3	0	1	0;
	2	0	0	3	0	1	0;
	2	0	0	3	0	1	0;
	2	0	0	3	0	1	0;
	2	0	0	3	0	1	0;
	2	0	0	3	0	1	0;
	2	0	0	3	0	1	0;
	2	0	0	3	0	1	0;
	2	0	0	3	0	1	0;
	2	0	0	3	0	1	0;
	2	0	0	3	0	1	0;
	2	0	0	3	0	1	0;
	2	0	0	3	0	1	0;
	2	0	0	3	0	1	0;
	2	0	0	3	0	1	0;
	2	0	0	3	0	1	0;
	2	0	0	3	0	1	0;
	2	0	0	3	0	1	0;
	2	0	0	3	0	1	0;
	2	0	0	3	0	1	0;
	2	0	0	3	0	1	0;
	2	0	0	3	0	1	0;
	2	0	0	3	0	1	0;
	2	0	0	3	0	1	0;
	2	0	0	3	0	1	0;
	2	0	0	3	0	1	0;
	2	0	0	3	0	1	0;
	2	0	0	3	0	1	0;
	2	0	0	3	0	1	0;
	2	0	0	3	0	1	0;
	2	0	0	3	0	1	0;
	2	0	0	3	0	1	0;
	2	0	0	3	0	1	0;
	2	0	0	3	0	1	0;
	2	0	0	3	0	1	0;
	2	0	0	3	0	1	0;
	2	0	0	3	0	1	0;
	2	0	0	3	0	1	0;
	2	0	0	3	0	1	0;
	2	0	0	3	0	1	0;
	2	0	0	3	0	1	0;
	2	0	0	3	0	1	0;
	2	0	0	3	0	1	0;
	2	0	0	3	0	1	0;
	2	0	0	3	0	1	0;
	2	0	0	3	0	1	0;
	2	0	0	3	0	1	0;
	2	0	0	3	0	1	0;
	2	0	0	3	0	1	0;
	2	0	0	3	0	1	0;
	2	0	0	3	0	1	0;
	2	0	0	3	0	1	0;
	2	0	0	3	0	1	0;
	2	0	0	3	0	1	0;
	2	0	0	3	0	1	0;
	2	0	0	3	0	1	0;
	2	0	0	3	0	1	0;
	2	0	0	3	0	1	0;
	2	0	0	3	0	1	0;
	2	0	0	3	0	1	0;
	2	0	0	3	0	1	0;
	2	0	0	3	0	1	0;
	2	0	0	3	0	1	0;
	2	0	0	3	0	1	0;
	2	0	0	3	0	1	0;
	2	0	0	3	0	1	0;
	2	0	0	3	0	1	0;
	2	0	0	3	0	1	0;
	2	0	0	3	0	1	0;
	2	0	0	3	0	1	0;
	2	0	0	3	0	1	0;
	2	0	0	3	0	1	0;
	2	0	0	3	0	1	0;
	2	0	0	3	0	1	0;
	2	0	0	3	0	1	0;
	2	0	0	3	0	1	0;
	2	0	0	3	0	1	0;
	2	0	0	3	0	1	0;
	2	0	0	3	0	1	0;
	2	0	0	3	0	1	0;
	2	0	0	3	0	1	0;
	2	0	0	3	0	1	0;
	2	0	0	3	0	1	0;
	2	0	0	3	0	1	0;
	2	0	0	3	0	1	0;
	2	0	0	3	0	1	0;
	2	0	0	3	0	1	0;
	2	0	0	3	0	1	0;
	2	0	0	3	0	1	0;
	2	0	0	3	0	1	0;
	2	0	0	3	0	1	0;
	2	0	0	3	0	1	0;
	2	0	0	3	0	1	0;
	2	0	0	3	0	1	0;
	2	0	0	3	0	1	0;
	2	0	0	3	0	1	0;
	2	0	0	3	0	1	0;
	2	0	0	3	0	1	0;
	2	0	0	3	0	1	0;
	2	0	0	3	0	1	0;
	2	0	0	3	0	1	0;
	2	0	0	3	0	1	0;
	2	0	0	3	0	1	0;
	2	0	0	3	0	1	0;
	2	0	0	3	0	1	0;
	2	0	0	3	0	1	0;
	2	0	0	3	0	1	0;
	2	0	0	3	0	1	0;
	2	0	0	3	0	1	0;
	2	0	0	3	0	1	0;
	2	0	0	3	0	1	0;
	2	0	0	3	0	1	0;
	2	0	0	3	0	1	0;
	2	0	0	3	0	1	0;
	2	0	0	3	0	1	0;
	2	0	0	3	0	1	0;
	2	0	0	3	0	1	0;
	2	0	0	3	0	1	0;
	2	0	0	3	0	1	0;
	2	0	0	3	0	1	0;
	2	0	0	3	0	1	0;
	2	0	0	3	0	1	0;
	2	0	0	3	0	1	0;
	2	0	0	3	0	1	0;
	2	0	0	3	0	1	0;
...
];

if fixed
    [GEN_BUS, PG, QG, QMAX, QMIN, VG, MBASE, GEN_STATUS, PMAX, PMIN] = idx_gen;
    k = find(   isinf(mpc.gen(:, QMIN)) & ...
                isinf(mpc.gen(:, QMAX)) & ...
                isinf(mpc.gen(:, PMIN)) & ...
                isinf(mpc.gen(:, PMAX))  );
    mpc.gen(k, PMIN) = mpc.gen(k, PG);
    mpc.gen(k, PMAX) = mpc.gen(k, PG);
    mpc.gen(k, QMIN) = mpc.gen(k, QG);
    mpc.gen(k, QMAX) = mpc.gen(k, QG);
end
